Version 4
SHEET 1 880 680
WIRE 96 -16 32 -16
WIRE 304 -16 176 -16
WIRE 144 144 80 144
WIRE 32 160 32 -16
WIRE 80 160 80 144
WIRE 80 160 32 160
WIRE 304 160 304 -16
WIRE 304 160 256 160
WIRE 352 160 304 160
WIRE 80 176 80 160
WIRE 144 176 80 176
WIRE 32 208 32 160
WIRE 32 224 32 208
WIRE 32 320 32 272
WIRE 352 320 32 320
FLAG 352 160 output
IOPIN 352 160 Out
FLAG 352 320 0
SYMBOL 74HCT\\74hct132 192 96 R0
SYMATTR InstName U1
SYMBOL cap 16 208 R0
SYMATTR InstName C1
SYMATTR Value 10n
SYMBOL res 192 -32 R90
WINDOW 0 0 56 VBottom 2
WINDOW 3 32 56 VTop 2
SYMATTR InstName R1
SYMATTR Value 2.2k
TEXT -88 -168 Left 2 !.lib 74hct.lib
TEXT -90 344 Left 2 !.tran 0.01
