Version 4
SHEET 1 880 680
WIRE 16 176 16 96
WIRE 576 176 576 96
WIRE 576 176 16 176
SYMBOL 74HCT\\74hct04 64 32 R0
SYMATTR InstName U1
SYMBOL 74HCT\\74hct04 176 32 R0
SYMATTR InstName U2
SYMBOL 74HCT\\74hct04 288 32 R0
SYMATTR InstName U3
SYMBOL 74HCT\\74hct04 400 32 R0
SYMATTR InstName U4
SYMBOL 74HCT\\74hct04 512 32 R0
SYMATTR InstName U5
TEXT 8 200 Left 2 !.tran 1u
TEXT 224 32 Left 2 !.lib 74hct.lib
